Circuit: * Z:\home\grzegorz\git\ADC7177M1\Draft1.asc

Direct Newton iteration for .op point succeeded.

Date: Sat May 31 15:30:05 2025
Total elapsed time: 0.190 seconds.

tnom = 27
temp = 27
method = modified trap
totiter = 2085
traniter = 2082
tranpoints = 1042
accept = 1042
rejected = 0
matrix size = 13
fillins = 1
solver = Normal
Matrix Compiler1: 604 bytes object code size  0.7/0.3/[0.2]
Matrix Compiler2: off
